
**** 11/25/17 17:46:15 ******* PSpice Lite (March 2016) ******* ID# 10813 ****

 Descripcion:


 ****     CIRCUIT DESCRIPTION


******************************************************************************



;V1     1       0       sin (0v, 10v, 500, 0s, 0, 0)
;V1     1       0  AC 10V
V1 1    0  pulse (0V, 5V, 0s, 1ns, 1ns, 1ms, 2ms)
R2      2   3  560
L1  3   0  6.58mH
;C1     3       0  100nF
R1      1       2  1200
R3      2       0  1200
;.ac DEC 10 100 100000
.tran 0s 5ms
.probe
.end

**** 11/25/17 17:46:15 ******* PSpice Lite (March 2016) ******* ID# 10813 ****

 Descripcion:


 ****     INITIAL TRANSIENT SOLUTION       TEMPERATURE =   27.000 DEG C


******************************************************************************



 NODE   VOLTAGE     NODE   VOLTAGE     NODE   VOLTAGE     NODE   VOLTAGE


(    1)    0.0000  (    2)    0.0000  (    3)    0.0000  




    VOLTAGE SOURCE CURRENTS
    NAME         CURRENT

    V1           0.000E+00

    TOTAL POWER DISSIPATION   0.00E+00  WATTS



          JOB CONCLUDED

**** 11/25/17 17:46:15 ******* PSpice Lite (March 2016) ******* ID# 10813 ****

 Descripcion:


 ****     JOB STATISTICS SUMMARY


******************************************************************************



  Total job time (using Solver 1)   =         .02
